Version 4
SHEET 1 1896 728
WIRE 320 16 -128 16
WIRE -272 48 -464 48
WIRE 320 80 320 16
WIRE 320 80 208 80
WIRE 416 80 320 80
WIRE 208 112 208 80
WIRE 416 112 416 80
WIRE -464 224 -464 48
WIRE -272 224 -272 48
WIRE -128 224 -128 16
WIRE 208 240 208 176
WIRE 208 240 144 240
WIRE 272 240 208 240
WIRE 416 240 416 176
WIRE 416 240 352 240
WIRE 592 240 416 240
WIRE 640 240 592 240
WIRE 768 240 720 240
WIRE 832 240 768 240
WIRE 1040 240 912 240
WIRE 1504 240 1296 240
WIRE 592 304 592 240
WIRE 768 304 768 240
WIRE 208 320 208 240
WIRE 416 320 416 240
WIRE 1504 384 1504 240
WIRE 208 432 208 384
WIRE 320 432 208 432
WIRE 416 432 416 384
WIRE 416 432 320 432
WIRE -464 480 -464 304
WIRE -368 480 -464 480
WIRE -272 480 -272 304
WIRE -272 480 -368 480
WIRE -368 528 -368 480
WIRE -128 528 -128 304
WIRE 320 528 320 432
WIRE 320 528 -128 528
WIRE 144 576 144 240
WIRE 592 576 592 368
WIRE 592 576 144 576
WIRE 768 576 768 368
WIRE 768 576 592 576
WIRE 1168 576 1168 336
WIRE 1168 576 768 576
WIRE 1280 576 1168 576
WIRE 1504 576 1504 464
WIRE 1504 576 1280 576
WIRE 1280 656 1280 576
FLAG -368 528 0
FLAG 1280 656 0
SYMBOL voltage -464 208 R0
WINDOW 123 0 0 Left 0
WINDOW 39 24 124 Left 2
SYMATTR SpiceLine Rser=1
SYMATTR InstName V1
SYMATTR Value SINE(0 230 50)
SYMBOL ind2 -288 208 R0
SYMATTR InstName L1
SYMATTR Value 8100”
SYMATTR Type ind
SYMBOL ind2 -144 208 R0
SYMATTR InstName L4
SYMATTR Value 100”
SYMATTR Type ind
SYMBOL diode 400 112 R0
SYMATTR InstName D1
SYMATTR Value DI_1N4007
SYMBOL diode 192 320 R0
SYMATTR InstName D2
SYMATTR Value DI_1N4007
SYMBOL diode 224 176 R180
WINDOW 0 24 64 Left 2
WINDOW 3 24 0 Left 2
SYMATTR InstName D3
SYMATTR Value DI_1N4007
SYMBOL diode 432 384 R180
WINDOW 0 24 64 Left 2
WINDOW 3 24 0 Left 2
SYMATTR InstName D4
SYMATTR Value DI_1N4007
SYMBOL cap 576 304 R0
SYMATTR InstName C1
SYMATTR Value 1m
SYMBOL cap 752 304 R0
SYMATTR InstName C2
SYMATTR Value 10”
SYMBOL res 368 224 R90
WINDOW 0 0 56 VBottom 2
WINDOW 3 32 56 VTop 2
SYMATTR InstName R1
SYMATTR Value 1k
SYMBOL Regulators\\7805 1168 240 R0
SYMATTR InstName U1
SYMBOL res 1488 368 R0
SYMATTR InstName R3
SYMATTR Value 10k
SYMBOL res 928 224 R90
WINDOW 0 0 56 VBottom 2
WINDOW 3 32 56 VTop 2
SYMATTR InstName R4
SYMATTR Value 50
SYMBOL ind 624 256 R270
WINDOW 0 32 56 VTop 2
WINDOW 3 5 56 VBottom 2
SYMATTR InstName L2
SYMATTR Value 10”
TEXT -488 512 Left 2 !.tran 100ms
TEXT -296 -16 Left 2 !K1 L1 L4 1
TEXT 664 0 Left 2 !.MODEL DI_1N4007 D( IS=76.9p RS=42.0m BV=1.00k IBV=5.00u\n+ CJO=26.5p  M=0.333 N=1.45 TT=4.32u )
TEXT 1160 160 Left 2 ;LM7805 IC
